8500-Node/IEEE8500_Reduced_VLN_Node.Txt

LINE-GROUND and LINE-LINE VOLTAGES BY BUS & NODE

Bus                  Node    VLN (kV)   Angle      pu     Base kV    Node-Node   VLL (kV)  Angle      pu

SOURCEBUS .......... 1       69.715 /_    0.0      1.05   115.000        1-2     120.75 /_   30.0      1.05
   -                 2       69.715 /_ -120.0      1.05   115.000        2-3     120.75 /_  -90.0      1.05
   -                 3       69.715 /_  120.0      1.05   115.000        3-1     120.75 /_  150.0      1.05
_HVMV_SUB_LSB ...... 1       7.3286 /_   -3.6    1.0179    12.470        1-2     12.685 /_   26.4    1.0172
   -                 2       7.3175 /_ -123.6    1.0164    12.470        2-3     12.693 /_  -93.7    1.0179
   -                 3       7.3237 /_  116.2    1.0172    12.470        3-1     12.674 /_  146.3    1.0164
HVMV_SUB_48332 ..... 1       7.3286 /_   -3.6    1.0179    12.470        1-2     12.685 /_   26.4    1.0172
   -                 2       7.3174 /_ -123.6    1.0164    12.470        2-3     12.693 /_  -93.7    1.0179
   -                 3       7.3237 /_  116.2    1.0172    12.470        3-1     12.674 /_  146.3    1.0164
R20185 ............. 1       7.2498 /_   -4.2     1.007    12.470        1-2      12.54 /_   25.7    1.0056
   -                 2       7.2298 /_ -124.2    1.0042    12.470        2-3     12.566 /_  -94.3    1.0077
   -                 3       7.2542 /_  115.4    1.0076    12.470        3-1     12.538 /_  145.6    1.0055
N1136663 ........... 1        6.153 /_  -11.9   0.85464    12.470        1-2     10.855 /_   17.6   0.87045
   -                 2       6.2843 /_ -133.5   0.87287    12.470        2-3     11.098 /_ -101.2   0.88996
   -                 3       6.6915 /_  109.0   0.92943    12.470        3-1     11.177 /_  137.1   0.89631
M1026695 ........... 1       5.9367 /_  -12.4   0.82459    12.470        1-2     10.571 /_   17.7   0.84773
   -                 2       6.1998 /_ -133.6   0.86113    12.470        2-3      10.88 /_ -101.4   0.87246
   -                 3       6.5231 /_  108.9   0.90604    12.470        3-1     10.866 /_  136.7   0.87137
M1142843 ........... 1       6.9443 /_   -6.7   0.96455    12.470        1-2     12.008 /_   23.2   0.96295
   -                 2       6.9117 /_ -126.8   0.96002    12.470        2-3     12.099 /_  -96.7   0.97023
   -                 3       7.0279 /_  112.8   0.97616    12.470        3-1     12.065 /_  142.9   0.96754
REGXFMR_190_7361 ... 1       6.6105 /_   -7.4   0.91818    12.470        1-2      11.33 /_   22.3   0.90861
   -                 2       6.4761 /_ -127.3   0.89952    12.470        2-3     11.388 /_  -97.7   0.91323
   -                 3       6.5873 /_  111.4   0.91496    12.470        3-1     11.356 /_  142.1   0.91067
M1125994 ........... 1       6.7082 /_   -8.2   0.93175    12.470        1-2     11.673 /_   21.5   0.93608
   -                 2       6.7242 /_ -128.9   0.93397    12.470        2-3     11.809 /_  -98.1   0.94695
   -                 3       6.9465 /_  111.6   0.96485    12.470        3-1     11.816 /_  141.1   0.94755
R42247 ............. 1       6.9689 /_   -6.4   0.96796    12.470        1-2     12.051 /_   23.4   0.96637
   -                 2        6.938 /_ -126.6   0.96367    12.470        2-3     12.137 /_  -96.5   0.97327
   -                 3       7.0453 /_  113.0   0.97858    12.470        3-1     12.103 /_  143.1   0.97056
190_8593 ........... 1       6.2166 /_  -11.6   0.86347    12.470        1-2     10.956 /_   17.9   0.87857
   -                 2       6.3361 /_ -133.2   0.88007    12.470        2-3     11.185 /_ -101.0   0.89698
   -                 3       6.7354 /_  109.2   0.93554    12.470        3-1     11.264 /_  137.5   0.90332
M1108378 ........... 1       6.6941 /_   -8.2   0.92979    12.470        1-2     11.649 /_   21.4   0.93416
   -                 2       6.7083 /_ -129.0   0.93176    12.470        2-3      11.79 /_  -98.1    0.9455
   -                 3       6.9443 /_  111.6   0.96455    12.470        3-1     11.802 /_  141.1   0.94645
221_282819 ......... 1       6.6939 /_   -8.2   0.92976    12.470
REGXFMR_190_8581 ... 1        6.538 /_   -9.5   0.90811    12.470        1-2     11.427 /_   20.1   0.91638
   -                 2       6.5903 /_ -130.5   0.91538    12.470        2-3     11.597 /_  -99.2   0.93003
   -                 3       6.8811 /_  110.7   0.95577    12.470        3-1     11.632 /_  139.7   0.93281
190_8581 ........... 1       6.5375 /_   -9.5   0.90804    12.470        1-2     11.426 /_   20.1   0.91631
   -                 2       6.5897 /_ -130.5    0.9153    12.470        2-3     11.596 /_  -99.2   0.92995
   -                 3       6.8807 /_  110.7   0.95571    12.470        3-1     11.631 /_  139.7   0.93275
R42246 ............. 1       6.2918 /_  -11.3   0.87391    12.470        1-2     11.075 /_   18.2   0.88812
   -                 2       6.3962 /_ -132.9   0.88841    12.470        2-3     11.288 /_ -100.7   0.90518
   -                 3       6.7874 /_  109.4   0.94276    12.470        3-1     11.367 /_  137.8   0.91157
M1026657 ........... 1       5.9183 /_  -12.5   0.82204    12.470
REGXFMR_190_8593 ... 1       6.2171 /_  -11.6   0.86353    12.470        1-2     10.957 /_   17.9   0.87863
   -                 2       6.3365 /_ -133.2   0.88013    12.470        2-3     11.186 /_ -101.0   0.89704
   -                 3       6.7358 /_  109.2   0.93559    12.470        3-1     11.265 /_  137.5   0.90337
190_7361 ........... 1       6.6103 /_   -7.4   0.91816    12.470        1-2      11.33 /_   22.3   0.90859
   -                 2        6.476 /_ -127.3   0.89949    12.470        2-3     11.388 /_  -97.7    0.9132
   -                 3       6.5872 /_  111.4   0.91494    12.470        3-1     11.356 /_  142.1   0.91065
R18242 ............. 1       6.4036 /_   -7.4   0.88945    12.470        1-2      10.98 /_   22.1   0.88055
   -                 2       6.2576 /_ -127.7   0.86917    12.470        2-3     11.096 /_  -97.5   0.88981
   -                 3       6.4968 /_  111.4   0.90239    12.470        3-1     11.105 /_  141.8   0.89058
HVMV_SUB_HSB ....... 1       69.397 /_   -0.6    1.0452   115.000        1-2     120.19 /_   29.4    1.0451
   -                 2        69.38 /_ -120.6     1.045   115.000        2-3      120.2 /_  -90.6    1.0452
   -                 3       69.391 /_  119.4    1.0451   115.000        3-1     120.17 /_  149.4     1.045
REGXFMR_HVMV_SUB_LSB 1       7.3289 /_   -3.6     1.018    12.470        1-2     12.686 /_   26.4    1.0173
   -                 2       7.3178 /_ -123.6    1.0164    12.470        2-3     12.694 /_  -93.7     1.018
   -                 3        7.324 /_  116.2    1.0173    12.470        3-1     12.675 /_  146.3    1.0164
